Version 4
SHEET 1 1840 680
WIRE 432 112 336 112
WIRE 528 112 432 112
WIRE 880 112 528 112
WIRE 880 144 880 112
WIRE 1232 144 880 144
WIRE 656 160 560 160
WIRE 336 176 336 112
WIRE 656 192 656 160
WIRE 1424 192 1344 192
WIRE 1584 192 1504 192
WIRE 880 208 880 144
WIRE 528 224 528 112
WIRE 560 224 560 160
WIRE 1344 240 1344 192
WIRE 1584 240 1584 192
WIRE 1296 256 1216 256
WIRE 960 288 880 288
WIRE 336 304 336 256
WIRE 1232 304 1232 144
WIRE 1296 304 1232 304
WIRE 560 368 560 336
WIRE 560 368 192 368
WIRE 1344 368 1344 320
WIRE 1584 368 1584 320
WIRE 1584 368 1344 368
WIRE 432 384 432 112
WIRE 528 416 528 336
WIRE 832 416 528 416
WIRE 960 416 960 288
WIRE 960 416 832 416
WIRE 1216 416 1216 256
WIRE 1216 416 960 416
WIRE 832 432 832 416
WIRE 528 448 528 416
WIRE 192 480 192 368
WIRE 432 544 432 448
WIRE 528 544 528 528
WIRE 528 544 432 544
WIRE 192 640 192 560
FLAG 336 304 0
FLAG 192 640 0
FLAG 656 192 0
SYMBOL AutoGenerated/SN74LS07 544 288 R270
SYMATTR InstName U1
SYMBOL voltage 192 464 R0
SYMATTR InstName V1
SYMATTR Value PULSE(0 3.3 0.001 0 0 0.03 0.2 3)
SYMBOL res 512 432 R0
SYMATTR InstName R1
SYMATTR Value 4.7e3
SYMBOL voltage 336 160 R0
SYMATTR InstName V2
SYMATTR Value 5
SYMBOL res 864 192 R0
SYMATTR InstName R2
SYMATTR Value 1e3
SYMBOL LED 416 384 R0
SYMATTR InstName D1
SYMATTR Value NSCW100
SYMBOL sw 1344 224 R0
SYMATTR InstName S1
SYMATTR Value MYSW
SYMBOL voltage 1584 224 R0
SYMATTR InstName V3
SYMATTR Value 5
SYMBOL res 1520 176 R90
WINDOW 0 0 56 VBottom 2
WINDOW 3 32 56 VTop 2
SYMATTR InstName R3
SYMATTR Value 20
TEXT 952 528 Left 2 !.tran 0.01 1
TEXT 1296 408 Left 2 !.model MYSW SW(Ron=1 Roff=1e9 Vt=3 Vh=-0.3)
